<?xml version="1.0" encoding="UTF-8"?>

<!-- generated on 2024-01-24 17:53:43 by Eclipse SUMO polyconvert Version 1.19.0
<configuration xmlns:xsi="http://www.w3.org/2001/XMLSchema-instance" xsi:noNamespaceSchemaLocation="http://sumo.dlr.de/xsd/polyconvertConfiguration.xsd">

    <input>
        <net-file value="1_net.net.xml"/>
        <shapefile-prefixes value="2_TAZ6_Oakville"/>
        <shapefile.guess-projection value="true"/>
        <shapefile.traditional-axis-mapping value="true"/>
        <shapefile.id-column value="CFSAUID"/>
    </input>

    <output>
        <output-file value="2_taz.poly.xml"/>
    </output>

</configuration>
-->

<additional xmlns:xsi="http://www.w3.org/2001/XMLSchema-instance" xsi:noNamespaceSchemaLocation="http://sumo.dlr.de/xsd/additional_file.xsd">
    <location netOffset="-593796.32,-4800932.00" convBoundary="0.00,0.00,19820.36,24016.60" origBoundary="-79.856086,43.354961,-79.580449,43.577388" projParameter="+proj=utm +zone=17 +ellps=WGS84 +datum=WGS84 +units=m +no_defs"/>

    <poly id="L6H" type="unknown" color="51,128,255" fill="1" layer="-1.00" shape="13816.135304,17736.201324 14049.671466,17507.002172 14065.663820,17507.000674 14091.670841,17483.000521 14157.683726,17416.988110 14179.673845,17394.994960 14187.672237,17387.995247 14204.665437,17372.992315 14221.667327,17357.990659 14211.663726,17345.000652 14180.666939,17300.001281 13696.670578,16670.997454 13602.668004,16547.000478 13586.235484,16522.350641 13572.666395,16501.998324 13522.671635,16408.996883 13520.665849,16403.997993 13502.670213,16360.999102 13473.667284,16271.000864 13465.669784,16238.000981 13453.667264,16195.007969 13443.669806,16216.010130 13432.670196,16168.001960 13423.669290,16076.009050 13441.667517,15709.008138 13443.665948,15679.000156 13444.663926,15667.009258 13445.671091,15651.006196 13454.211650,15498.674801 13482.669397,14991.000539 13485.666239,14940.002852 13498.669079,14788.010172 13506.669486,14589.000729 13537.669373,14126.004372 13554.666666,13821.007292 13557.670706,13688.007386 13553.667788,13603.004863 13536.664361,13439.002329 13492.672509,13243.010030 13433.666660,13071.006964 13355.669239,12903.000687 13275.671111,12771.002296 13263.398129,12754.017657 13185.279238,12645.901796 13137.665438,12580.004639 12981.668591,12375.008911 12740.354380,12055.408571 12682.668331,11979.005794 12673.666417,11965.999614 12663.788969,11952.891393 12618.670950,11893.001796 12405.665697,11610.003208 12243.566143,11392.843491 12206.560766,11350.504878 12129.214785,11262.005616 12066.617227,11195.036684 11980.514274,11098.550810 11968.026353,11083.022985 11945.701793,11055.265788 11918.490334,11021.435043 11899.611211,10997.958697 11862.874878,10950.386054 11813.726766,10957.096446 11748.686903,10933.311667 11669.688975,10892.887569 11580.511955,10847.323542 11507.293252,10828.102734 11501.532434,10826.590004 11463.802384,10822.860325 11411.271721,10820.603312 11374.937239,10824.735437 11341.319382,10837.652277 11305.955269,10889.687257 11278.570830,10924.666524 11240.932561,10947.566707 11208.237269,10959.162286 11172.517909,10986.353860 11146.490982,10989.813348 11140.732120,10988.008705 11115.822969,10980.197422 11096.733120,10972.793516 11080.989283,10966.688733 11027.261589,10957.687970 10987.285227,10954.358937 10951.528834,10942.171170 10913.650654,10924.564887 10896.659820,10913.681399 10876.784571,10860.446931 10834.514727,10808.289677 10802.830650,10773.367658 10774.085284,10768.045090 10743.562489,10772.302014 10713.586346,10792.681096 10680.785399,10829.780702 10661.731766,10872.547364 10647.334673,10910.605455 10639.654137,10930.912735 10633.055376,10972.685898 10618.377474,11065.589565 10612.254409,11089.842366 10582.567904,11137.973996 10538.355390,11195.633113 10485.663084,11231.627957 10454.878881,11237.668205 10405.715652,11234.808131 10392.139268,11230.440376 10363.945036,11221.369018 10349.853425,11200.703427 10328.728579,11153.479166 10299.545834,11106.530423 10270.581209,11080.391666 10197.346458,11052.844494 10107.410036,11042.159799 10038.559423,11039.317680 9988.665892,11100.877894 9925.159342,11160.798703 9888.662611,11203.185189 9859.192467,11272.128848 9818.200653,11387.134828 9780.831207,11489.913921 9753.318426,11530.709459 9735.472677,11540.395304 9721.617389,11547.915846 9716.042370,11547.529780 9696.374367,11546.163669 9674.700877,11544.658164 9653.853004,11529.576604 9627.045999,11513.905454 9597.887714,11506.735767 9572.182508,11505.504057 9534.777021,11497.081035 9519.435087,11482.426069 9494.618269,11440.490695 9481.106382,11403.502158 9479.747999,11363.197337 9476.468150,11318.601387 9471.541977,11277.772386 9448.081496,11227.339977 9432.217529,11193.233691 9404.740401,11152.840438 9401.799890,11148.515011 9382.190028,11121.428673 9378.451683,11117.024087 9373.736181,11111.465774 9370.677943,11106.700014 9370.434862,11106.318701 9351.476833,11086.734024 9345.961994,11081.040230 9337.688286,11072.491300 9313.858602,11054.984800 9295.839973,11044.825776 9260.283537,11033.757198 9203.985533,11029.845729 9169.894403,11033.576097 9142.687614,11049.986862 9131.348794,11077.481572 9124.534604,11143.561534 9114.391402,11177.796555 9089.863078,11235.434820 9073.316307,11276.018045 9020.185786,11342.205070 8981.964701,11381.421064 8949.938903,11403.321494 8914.323857,11405.004259 8882.733399,11396.706056 8846.107408,11373.084516 8783.655329,11282.222995 8771.956187,11264.188236 8718.285907,11181.452229 8689.648613,11150.621602 8660.232295,11134.988184 8623.100404,11134.625005 8593.508716,11147.403281 8577.406367,11167.635834 8568.963240,11185.058286 8541.788968,11241.138970 8507.551293,11302.815987 8469.399651,11348.968009 8432.589315,11415.733503 8405.399199,11451.834549 8386.073208,11468.906650 8328.283424,11519.956514 8296.781332,11538.288285 8277.015412,11543.004989 8258.994953,11547.304582 8210.827460,11550.055085 8158.298439,11547.789604 8111.709644,11539.832765 8101.185088,11519.690549 8084.051309,11494.925441 8042.018155,11483.265887 7962.199166,11480.624760 7922.093646,11483.105051 7887.892233,11512.336269 7854.398100,11519.436172 7812.898229,11514.053880 7771.128887,11500.609657 7729.740951,11469.721193 7691.267313,11448.740142 7653.736558,11446.128499 7611.457034,11455.943208 7551.065493,11455.067734 7480.309518,11467.614242 7425.749318,11486.555642 7380.187478,11523.595315 7341.621240,11547.810157 7295.405366,11594.232605 7235.444623,11634.982438 7227.685029,11639.238803 7231.163541,11643.712495 7284.093290,11712.968107 7328.361406,11770.890562 7345.067336,11792.752696 7376.829280,11832.086534 7384.961692,11842.172469 7458.681114,11933.446691 7560.322237,12061.077502 7632.792181,12155.366824 7709.154228,12250.729166 7719.604055,12263.748998 7796.853918,12361.034074 7862.573708,12446.082527 7880.675230,12469.505862 7978.847334,12594.989455 8056.305628,12693.995911 8133.137863,12789.947205 8263.665752,12959.005821 8395.947895,13129.743637 8549.939422,13328.496111 8621.281168,13418.948505 8801.833302,13656.634455 8892.072524,13777.431683 8964.803105,13873.975317 8972.958104,13882.920286 8986.701173,13896.661245 9088.350945,14028.903148 9139.751733,14097.996926 9168.191449,14133.499815 9264.743955,14254.305403 9320.062117,14326.236625 9396.958074,14423.492084 9501.522973,14557.686961 9548.246246,14617.231200 9617.346140,14705.291939 9737.654761,14858.613869 9872.765508,15031.342739 9930.290229,15109.356827 9981.883659,15176.446386 10030.833676,15239.131613 10147.750397,15390.213811 10241.249868,15510.119910 10504.668773,15853.000820 10611.272811,15990.879055 10805.819925,16240.279146 10846.117788,16291.935544 10981.937647,16466.046941 11281.642159,16864.795500 11451.665364,17091.001662 11453.669611,17102.995064 11491.666774,17158.002176 11519.665915,17187.999584 11526.670572,17191.998236 11578.667714,17258.998244 11682.670737,17393.999151 11706.667243,17430.003082 11795.670565,17551.994962 11798.670811,17555.996832 11818.668072,17579.993464 11832.671846,17596.998431 11844.669140,17611.996118 11934.666058,17730.998860 12038.949926,17871.273518 12047.665704,17882.995854 12066.671668,17914.001666 12105.617744,17962.778886 12117.269353,17977.373912 12134.545067,18000.450063 12283.064955,18198.777272 12302.350087,18224.528433 12371.666665,18313.993707 12387.668498,18321.999669 12490.666922,18456.997017 12495.670621,18475.996663 12527.664622,18518.991949 12624.666714,18649.000104 12657.667717,18685.994178 12673.664416,18707.998713 12730.671680,18782.995294 12747.666242,18771.001759 12768.669759,18750.993255 12781.663683,18741.003656 12853.668385,18667.993288 12967.665900,18562.002345 12979.669502,18557.994194 13181.842538,18358.539366 13483.272566,18067.574987 13515.896248,18036.085051 13525.755120,18022.711731 13658.771023,17892.162826 13713.591566,17840.160324 13799.235514,17753.103798 13816.135304,17736.201324"/>
    <poly id="L6J" type="unknown" color="51,128,255" fill="1" layer="-1.00" shape="15946.208993,15669.524249 16029.666459,15588.003620 16079.435857,15539.542203 16333.670790,15292.008560 16591.670567,15036.006821 16708.705117,14926.304570 16936.668749,14710.005194 17100.664456,14550.003667 17154.109797,14500.737584 17181.457055,14474.937801 17316.070811,14318.562637 17349.510667,14279.721896 17387.410060,14236.530720 17390.327194,14233.580939 17393.517580,14230.353329 18125.839849,13553.539057 17855.224731,13310.416738 17439.997043,12937.360558 17317.451088,12827.258519 17205.306621,12726.500234 17112.916232,12643.489373 16742.160540,12310.371384 16224.941586,11356.286264 16081.164132,11087.217862 15860.793129,10674.807919 15826.382439,10610.409524 15691.821125,10329.717615 15585.984576,10114.778846 15537.401490,10016.112491 15474.757969,9888.892949 15407.465688,9752.228789 15388.391323,9714.218545 15322.235511,9582.384473 15273.751232,9485.759979 15175.936460,9290.831891 14616.065837,8090.533595 14537.145130,8344.476842 14258.003024,9242.649705 14181.626408,9488.389864 14160.716799,9547.933622 14136.596197,9616.624220 14072.559304,9697.597756 14008.714075,9740.960803 13873.368088,9844.758778 13802.499176,9891.754231 13770.770533,9912.794053 13731.218883,9931.321375 13725.707338,9933.904690 13678.385259,9953.529131 13648.507176,9960.295986 13560.310837,9981.220905 13548.888287,9983.931587 13528.225226,9987.539282 13512.459082,9991.109123 13478.591635,10015.657898 13448.186737,10066.234941 13428.039537,10128.891963 13423.161408,10199.264333 13436.323314,10215.746364 13450.147685,10233.058659 13463.014368,10249.168696 13469.342100,10257.091091 13582.084096,10278.769925 13664.928469,10283.257453 13692.034115,10284.727641 13732.680612,10298.359563 13776.468615,10342.709210 13785.978733,10368.260804 13790.498760,10380.406322 13793.155768,10387.543248 13804.171039,10417.139906 13813.817590,10477.981232 13804.315868,10508.075705 13796.765541,10531.983215 13748.794992,10587.999355 13680.829151,10668.418706 13481.294752,10796.922819 13473.443870,10801.981596 13364.753952,10861.828690 13211.961431,10953.837187 13153.533859,10996.650047 13082.593599,11017.938097 13059.406853,11022.398107 13004.181546,11033.020137 12935.130482,11029.062463 12864.513302,10983.681683 12772.501033,10883.019389 12723.432958,10782.838788 12671.313456,10730.695918 12617.376025,10710.734744 12586.925819,10707.321611 12581.509833,10706.715671 12565.371472,10704.909502 12493.067367,10747.866442 12453.588647,10783.964855 12442.103228,10794.467615 12404.111922,10829.206806 12381.444905,10849.931973 12353.684574,10902.356546 12345.885948,10962.821598 12320.063627,11039.231734 12296.713284,11061.034701 12283.297703,11073.560985 12249.932661,11074.849834 12206.313270,11064.059890 12177.471801,11032.111855 12162.830318,10995.322445 12186.047568,10956.449373 12218.248160,10915.978561 12258.783669,10883.295007 12290.764083,10822.014454 12296.923818,10728.476638 12301.105386,10664.947660 12292.427751,10642.162131 12270.469541,10622.891878 12241.851657,10611.756382 12169.893834,10607.735542 12140.695827,10612.919424 12112.693931,10624.840430 12088.679685,10659.222303 12080.785242,10693.059758 12012.078305,10828.052215 11964.551949,10873.557983 11916.688447,10905.753496 11910.740702,10909.755056 11900.669076,10919.616040 11890.879439,10929.200590 11875.297553,10944.459700 11870.278733,10949.374435 11862.874878,10950.386054 11899.611211,10997.958697 11918.490334,11021.435043 11945.701793,11055.265788 11968.026353,11083.022985 11980.514274,11098.550810 12066.617227,11195.036684 12129.214785,11262.005616 12206.560766,11350.504878 12243.566143,11392.843491 12405.665697,11610.003208 12618.670950,11893.001796 12663.788969,11952.891393 12673.666417,11965.999614 12682.668331,11979.005794 12740.354380,12055.408571 12981.668591,12375.008911 13137.665438,12580.004639 13185.279238,12645.901796 13263.398129,12754.017657 13275.671111,12771.002296 13355.669239,12903.000687 13433.666660,13071.006964 13492.672509,13243.010030 13536.664361,13439.002329 13553.667788,13603.004863 13557.670706,13688.007386 13554.666666,13821.007292 13537.669373,14126.004372 13506.669486,14589.000729 13498.669079,14788.010172 13485.666239,14940.002852 13482.669397,14991.000539 13454.211650,15498.674801 13445.671091,15651.006196 13444.663926,15667.009258 13443.665948,15679.000156 13441.667517,15709.008138 13423.669290,16076.009050 13432.670196,16168.001960 13443.669806,16216.010130 13453.667264,16195.007969 13465.669784,16238.000981 13473.667284,16271.000864 13502.670213,16360.999102 13520.665849,16403.997993 13522.671635,16408.996883 13572.666395,16501.998324 13586.235484,16522.350641 13602.668004,16547.000478 13696.670578,16670.997454 14180.666939,17300.001281 14211.663726,17345.000652 14221.667327,17357.990659 14241.672032,17340.995050 14258.683259,17320.978841 14310.725727,17268.936897 14346.689928,17236.969021 14350.502075,17232.711242 14363.667112,17217.989144 14365.142790,17216.512718 14394.669248,17186.993236 14404.662410,17179.990120 14451.670219,17128.992381 14470.668296,17115.000326 14482.666626,17101.996949 14492.633113,17092.453915 14529.666529,17056.995568 14528.734316,17046.139172 14600.381311,16976.962802 14697.275318,16881.478103 14830.848289,16752.485512 14964.419193,16623.490064 15239.090287,16357.514303 15242.488189,16354.224491 15254.337148,16342.758939 15506.947878,16098.357428 15534.014988,16072.169754 15536.637845,16069.631838 15669.243787,15943.503108 15700.923679,15911.579246 15708.601539,15904.007837 15946.208993,15669.524249"/>
    <poly id="L6K" type="unknown" color="51,128,255" fill="1" layer="-1.00" shape="13804.315868,10508.075705 13813.817590,10477.981232 13804.171039,10417.139906 13793.155768,10387.543248 13790.498760,10380.406322 13785.978733,10368.260804 13776.468615,10342.709210 13732.680612,10298.359563 13692.034115,10284.727641 13664.928469,10283.257453 13582.084096,10278.769925 13469.342100,10257.091091 13463.014368,10249.168696 13450.147685,10233.058659 13436.323314,10215.746364 13423.161408,10199.264333 13428.039537,10128.891963 13448.186737,10066.234941 13478.591635,10015.657898 13512.459082,9991.109123 13528.225226,9987.539282 13548.888287,9983.931587 13560.310837,9981.220905 13648.507176,9960.295986 13678.385259,9953.529131 13725.707338,9933.904690 13731.218883,9931.321375 13770.770533,9912.794053 13802.499176,9891.754231 13873.368088,9844.758778 14008.714075,9740.960803 14072.559304,9697.597756 14136.596197,9616.624220 14160.716799,9547.933622 14181.626408,9488.389864 14258.003024,9242.649705 14537.145130,8344.476842 14616.065837,8090.533595 14494.855999,7839.829155 14437.963555,7722.150739 14199.635729,7229.184254 14054.831065,6929.656151 12722.563068,7761.115002 12712.094676,7767.758193 12666.254119,7798.153199 12611.603048,7820.023454 12520.443053,7794.761838 12492.811370,7821.778889 12458.775161,7869.706848 12432.754215,7919.420018 12376.170787,7961.896045 12303.662175,7987.646429 12268.894266,7988.050705 12219.358364,7987.152796 12212.138220,7988.332878 12189.679929,7992.000632 12125.680829,8030.001124 12074.681109,8065.000323 12025.679671,8107.000778 11991.680115,8182.999673 12005.680332,8258.000022 12007.679730,8318.998540 12014.679897,8339.001025 12041.679639,8362.998573 11838.680707,8563.000524 11813.912372,8605.200454 11811.681212,8609.000251 11806.679595,8624.000947 11803.636875,8642.258470 11801.680943,8653.999483 11772.680084,8721.000401 11752.680773,8757.999483 11738.679650,8772.000545 11713.192421,8784.206895 11701.890393,8789.617002 11678.014493,8801.050610 11667.680410,8806.000275 11605.679349,8822.999370 11569.680416,8854.998438 11542.882578,8889.452563 11541.680107,8890.998655 11531.574154,8900.262162 11514.392036,8916.013307 11505.680525,8923.999382 11476.680629,8938.000382 11461.678893,8941.998854 11384.680284,8931.000467 11366.679046,8932.000253 11337.879663,8952.917227 11327.348519,8960.566979 11306.323458,8975.837235 11176.679395,9069.999704 11144.680172,9041.998564 11129.518040,9032.022674 11117.355182,8972.424826 11067.984096,9020.844409 10874.910752,9215.108777 10700.231590,9388.460864 10697.667297,9391.006900 10687.668798,9401.006485 10673.666587,9415.007231 10862.492179,9651.914771 11050.670169,9888.005357 11127.384175,9984.312097 11172.278488,10040.672310 11245.723952,10132.874007 11328.666109,10237.000354 11365.664325,10283.000216 11373.668057,10292.000727 11400.432018,10319.079540 11492.614560,10438.447432 11515.358499,10470.996465 11730.960278,10779.564071 11783.616367,10847.750939 11791.071281,10857.403649 11862.874878,10950.386054 11870.278733,10949.374435 11875.297553,10944.459700 11890.879439,10929.200590 11900.669076,10919.616040 11910.740702,10909.755056 11916.688447,10905.753496 11964.551949,10873.557983 12012.078305,10828.052215 12080.785242,10693.059758 12088.679685,10659.222303 12112.693931,10624.840430 12140.695827,10612.919424 12169.893834,10607.735542 12241.851657,10611.756382 12270.469541,10622.891878 12292.427751,10642.162131 12301.105386,10664.947660 12296.923818,10728.476638 12290.764083,10822.014454 12258.783669,10883.295007 12218.248160,10915.978561 12186.047568,10956.449373 12162.830318,10995.322445 12177.471801,11032.111855 12206.313270,11064.059890 12249.932661,11074.849834 12283.297703,11073.560985 12296.713284,11061.034701 12320.063627,11039.231734 12345.885948,10962.821598 12353.684574,10902.356546 12381.444905,10849.931973 12404.111922,10829.206806 12442.103228,10794.467615 12453.588647,10783.964855 12493.067367,10747.866442 12565.371472,10704.909502 12581.509833,10706.715671 12586.925819,10707.321611 12617.376025,10710.734744 12671.313456,10730.695918 12723.432958,10782.838788 12772.501033,10883.019389 12864.513302,10983.681683 12935.130482,11029.062463 13004.181546,11033.020137 13059.406853,11022.398107 13082.593599,11017.938097 13153.533859,10996.650047 13211.961431,10953.837187 13364.753952,10861.828690 13473.443870,10801.981596 13481.294752,10796.922819 13680.829151,10668.418706 13748.794992,10587.999355 13796.765541,10531.983215 13804.315868,10508.075705"/>
    <poly id="L6L" type="unknown" color="51,128,255" fill="1" layer="-1.00" shape="11067.984096,9020.844409 11117.355182,8972.424826 11129.518040,9032.022674 11144.680172,9041.998564 11176.679395,9069.999704 11306.323458,8975.837235 11327.348519,8960.566979 11337.879663,8952.917227 11366.679046,8932.000253 11384.680284,8931.000467 11461.678893,8941.998854 11476.680629,8938.000382 11505.680525,8923.999382 11514.392036,8916.013307 11531.574154,8900.262162 11541.680107,8890.998655 11542.882578,8889.452563 11569.680416,8854.998438 11605.679349,8822.999370 11667.680410,8806.000275 11678.014493,8801.050610 11701.890393,8789.617002 11713.192421,8784.206895 11738.679650,8772.000545 11752.680773,8757.999483 11772.680084,8721.000401 11801.680943,8653.999483 11803.636875,8642.258470 11806.679595,8624.000947 11811.681212,8609.000251 11813.912372,8605.200454 11838.680707,8563.000524 12041.679639,8362.998573 12014.679897,8339.001025 12007.679730,8318.998540 12005.680332,8258.000022 11991.680115,8182.999673 12025.679671,8107.000778 12074.681109,8065.000323 12125.680829,8030.001124 12189.679929,7992.000632 12212.138220,7988.332878 12219.358364,7987.152796 12268.894266,7988.050705 12303.662175,7987.646429 12376.170787,7961.896045 12432.754215,7919.420018 12458.775161,7869.706848 12492.811370,7821.778889 12520.443053,7794.761838 12611.603048,7820.023454 12666.254119,7798.153199 12712.094676,7767.758193 12722.563068,7761.115002 14054.831065,6929.656151 13815.324047,6499.046954 13593.757900,6100.687438 13426.363494,5799.715139 13162.103885,5446.261217 12836.139642,5010.259962 12751.676949,4916.207961 12485.640903,4619.959869 12208.326263,4309.985798 12098.734070,4188.381248 12075.120475,4162.178680 11956.179490,4030.195276 11835.487737,3896.149854 11756.014911,3807.882085 11748.379585,3799.402175 11616.320611,3649.464317 11590.328528,3620.055170 11486.857754,3502.986747 11353.060885,3351.604870 10715.655694,2630.232646 10626.343803,2525.300529 10380.804922,2236.810119 10320.035366,2165.411003 9880.002584,1648.387731 9547.302518,1946.742619 9542.790334,1950.818542 9516.307529,1981.374891 9400.619797,2095.100876 9253.759876,2239.267289 9067.183724,2423.498858 9054.927181,2435.499390 8985.863367,2501.402320 8968.473353,2517.996214 8955.364854,2530.504249 8913.629564,2571.680298 8810.429594,2673.499078 8641.427348,2839.501577 8632.177764,2849.002780 8575.925774,2907.003672 8566.683757,2916.005701 8444.303082,3033.499001 8719.046834,3392.329147 8971.429759,3715.727796 9100.238697,3882.479940 9155.095823,3956.130868 9193.030961,4008.729149 9295.831109,4140.122324 9386.848686,4275.776199 9391.336981,4282.467477 9405.387934,4297.011852 9449.631528,4359.554642 9492.403924,4420.022073 9599.761462,4559.575649 9632.382910,4597.217437 9621.642898,4600.458253 9524.668198,4625.302255 9478.575492,4644.540846 9437.977556,4659.115723 9417.867042,4676.377865 9388.533144,4724.769173 9336.313252,4810.399693 9311.515010,4860.617174 9312.292442,4873.146549 9313.772865,4897.084189 9312.585536,4914.148782 9300.251363,4924.764064 9276.523514,4930.552258 9248.769714,4934.423910 9218.275797,4934.665769 9217.963425,4934.834345 9202.963558,4937.854777 9163.155153,4932.759124 9090.189820,4934.117144 9070.433921,4944.467654 9047.309823,4950.677460 9006.568105,4943.684913 8973.184065,4930.648809 8940.783702,4914.275592 8899.072286,4895.868219 8847.694629,4882.338126 8805.906779,4886.333938 8777.890038,4892.613651 8725.208801,4934.085283 8694.769621,4958.443366 8685.693303,4987.441675 8689.389446,5023.124617 8709.777320,5081.653799 8732.546464,5180.317345 8732.182970,5210.927348 8720.694280,5229.293252 8704.354354,5232.191780 8679.065150,5235.096477 8664.945389,5239.985839 8657.232320,5242.655291 8632.261636,5268.150946 8609.310781,5290.122855 8560.315502,5317.249224 8556.429526,5323.632949 8532.241401,5336.206265 8510.024658,5368.585267 8494.422459,5397.683523 8479.510151,5425.488291 8472.174397,5439.168480 8449.120622,5488.567212 8415.811693,5534.486586 8345.104858,5574.742294 8248.109507,5612.192341 8185.019288,5623.382336 8131.938723,5636.652547 8108.007057,5653.912631 8104.999132,5672.282050 8112.029082,5695.617998 8126.484033,5720.050094 8196.225227,5800.713689 8237.543743,5842.070260 8281.828178,5909.653627 8283.400641,5929.380660 8278.787327,5948.858313 8258.045361,5960.115865 8220.678893,5972.638808 8187.344666,5979.394103 8152.337033,5995.710785 8116.566251,6017.215184 8099.135058,6031.908090 8074.184512,6055.261469 8153.318530,6157.873728 8206.241842,6232.486454 8209.336926,6236.873987 8213.982802,6243.481586 8240.166857,6280.434149 8251.855722,6296.924463 8286.681346,6346.025167 8291.737133,6353.205090 8316.270321,6385.027510 8331.867510,6405.529225 8466.269979,6579.573693 8580.799813,6735.080768 8938.286850,7198.510902 8948.920910,7212.303210 9093.668800,7400.006515 9342.720292,7718.101433 9376.408046,7765.723144 9383.977608,7758.045683 9760.019833,8242.445974 9849.119919,8359.715656 9952.666074,8496.001337 10525.666289,9226.003848 10673.666587,9415.007231 10687.668798,9401.006485 10697.667297,9391.006900 10700.231590,9388.460864 10874.910752,9215.108777 11067.984096,9020.844409"/>